*SPEF "ieee 1481-1999"
*DESIGN "pmu_controller"
*DATE "11:11:11 Fri 11 11, 1111"
*VENDOR "OpenRCX"
*PROGRAM "Parallel Extraction"
*VERSION "1.0"
*DESIGN_FLOW "NAME_SCOPE LOCAL" "PIN_CAP NONE"
*DIVIDER /
*DELIMITER :
*BUS_DELIMITER []
*T_UNIT 1 NS
*C_UNIT 1 PF
*R_UNIT 1 OHM
*L_UNIT 1 HENRY

*NAME_MAP
*3 app_idle
*4 clk
*5 clk_gate_en
*6 current_state[0]
*7 current_state[1]
*8 isolation_en
*9 pwr_gate_en
*10 reset_n
*11 thermal_alert
*12 wakeup_event
*13 _00_
*14 _01_
*15 _02_
*16 _03_
*17 _04_
*18 _05_
*19 _06_
*20 _07_
*21 clknet_0_clk
*22 clknet_1_0__leaf_clk
*23 clknet_1_1__leaf_clk
*24 net1
*25 net2
*26 net3
*27 net4
*28 net5
*29 net6
*30 net7
*31 net8
*32 net9
*33 FILLER_0_0_15
*34 FILLER_0_0_27
*35 FILLER_0_0_3
*36 FILLER_0_0_35
*37 FILLER_0_0_47
*38 FILLER_0_0_55
*39 FILLER_0_0_57
*40 FILLER_0_0_69
*41 FILLER_0_0_79
*42 FILLER_0_1_23
*43 FILLER_0_1_35
*44 FILLER_0_1_47
*45 FILLER_0_1_55
*46 FILLER_0_1_57
*47 FILLER_0_1_69
*48 FILLER_0_1_77
*49 FILLER_0_2_15
*50 FILLER_0_2_27
*51 FILLER_0_2_3
*52 FILLER_0_2_50
*53 FILLER_0_2_62
*54 FILLER_0_2_74
*55 FILLER_0_2_80
*56 FILLER_0_3_15
*57 FILLER_0_3_23
*58 FILLER_0_3_3
*59 FILLER_0_3_52
*60 FILLER_0_3_57
*61 FILLER_0_3_69
*62 FILLER_0_4_21
*63 FILLER_0_4_27
*64 FILLER_0_4_55
*65 FILLER_0_4_67
*66 FILLER_0_4_79
*67 FILLER_0_4_9
*68 FILLER_0_5_15
*69 FILLER_0_5_3
*70 FILLER_0_5_54
*71 FILLER_0_5_57
*72 FILLER_0_5_69
*73 FILLER_0_6_15
*74 FILLER_0_6_27
*75 FILLER_0_6_3
*76 FILLER_0_6_35
*77 FILLER_0_6_52
*78 FILLER_0_6_64
*79 FILLER_0_6_72
*80 FILLER_0_7_15
*81 FILLER_0_7_27
*82 FILLER_0_7_3
*83 FILLER_0_7_39
*84 FILLER_0_7_51
*85 FILLER_0_7_55
*86 FILLER_0_7_57
*87 FILLER_0_7_69
*88 FILLER_0_8_15
*89 FILLER_0_8_27
*90 FILLER_0_8_29
*91 FILLER_0_8_3
*92 FILLER_0_8_41
*93 FILLER_0_8_53
*94 FILLER_0_8_65
*95 FILLER_0_8_77
*96 FILLER_0_9_13
*97 FILLER_0_9_25
*98 FILLER_0_9_29
*99 FILLER_0_9_41
*100 FILLER_0_9_53
*101 FILLER_0_9_6
*102 FILLER_0_9_63
*103 FILLER_0_9_75
*104 PHY_0
*105 PHY_1
*106 PHY_10
*107 PHY_11
*108 PHY_12
*109 PHY_13
*110 PHY_14
*111 PHY_15
*112 PHY_16
*113 PHY_17
*114 PHY_18
*115 PHY_19
*116 PHY_2
*117 PHY_3
*118 PHY_4
*119 PHY_5
*120 PHY_6
*121 PHY_7
*122 PHY_8
*123 PHY_9
*124 TAP_20
*125 TAP_21
*126 TAP_22
*127 TAP_23
*128 TAP_24
*129 TAP_25
*130 TAP_26
*131 TAP_27
*132 TAP_28
*133 TAP_29
*134 TAP_30
*135 TAP_31
*136 _08_
*137 _09_
*138 _10_
*139 _11_
*140 _12_
*141 _13_
*142 _14_
*143 _15_
*144 _16_
*145 _17_
*146 _18_
*147 _19_
*148 _20_
*149 clkbuf_0_clk
*150 clkbuf_1_0__f_clk
*151 clkbuf_1_1__f_clk
*152 input1
*153 input2
*154 input3
*155 input4
*156 output5
*157 output6
*158 output7
*159 output8
*160 output9

*PORTS
app_idle I
clk I
clk_gate_en O
current_state[0] O
current_state[1] O
isolation_en O
pwr_gate_en O
reset_n I
thermal_alert I
wakeup_event I

*D_NET *3 0.00149624
*CONN
*P app_idle I
*I *152:A I *D sky130_fd_sc_hd__buf_1
*CAP
1 app_idle 0.000748119
2 *152:A 0.000748119
*RES
1 app_idle *152:A 28.1036 
*END

*D_NET *4 0.00428788
*CONN
*P clk I
*I *149:A I *D sky130_fd_sc_hd__clkbuf_16
*CAP
1 clk 0.00204213
2 *149:A 0.00204213
3 *149:A current_state[1] 6.50102e-05
4 *149:A *147:D 0.000138607
*RES
1 clk *149:A 42.2627 
*END

*D_NET *5 0.00149035
*CONN
*P clk_gate_en O
*I *156:X O *D sky130_fd_sc_hd__clkbuf_4
*CAP
1 clk_gate_en 0.00065663
2 *156:X 0.00065663
3 clk_gate_en *156:A 0.000172852
4 clk_gate_en *24:10 4.23644e-06
*RES
1 *156:X clk_gate_en 25.3179 
*END

*D_NET *6 0.000975473
*CONN
*P current_state[0] O
*I *157:X O *D sky130_fd_sc_hd__clkbuf_4
*CAP
1 current_state[0] 0.000461699
2 *157:X 0.000461699
3 current_state[0] *155:A 0
4 current_state[0] *157:A 5.20751e-05
*RES
1 *157:X current_state[0] 22.05 
*END

*D_NET *7 0.000663052
*CONN
*P current_state[1] O
*I *158:X O *D sky130_fd_sc_hd__clkbuf_4
*CAP
1 current_state[1] 0.000299021
2 *158:X 0.000299021
3 *149:A current_state[1] 6.50102e-05
*RES
1 *158:X current_state[1] 21.4589 
*END

*D_NET *8 0.000660354
*CONN
*P isolation_en O
*I *159:X O *D sky130_fd_sc_hd__clkbuf_4
*CAP
1 isolation_en 0.000330177
2 *159:X 0.000330177
*RES
1 *159:X isolation_en 19.6745 
*END

*D_NET *9 0.000701952
*CONN
*P pwr_gate_en O
*I *160:X O *D sky130_fd_sc_hd__clkbuf_4
*CAP
1 pwr_gate_en 0.000350976
2 *160:X 0.000350976
*RES
1 *160:X pwr_gate_en 20.6929 
*END

*D_NET *10 0.000839852
*CONN
*P reset_n I
*I *153:A I *D sky130_fd_sc_hd__buf_1
*CAP
1 reset_n 0.000419926
2 *153:A 0.000419926
*RES
1 reset_n *153:A 23.5839 
*END

*D_NET *11 0.000977696
*CONN
*P thermal_alert I
*I *154:A I *D sky130_fd_sc_hd__buf_1
*CAP
1 thermal_alert 0.000473415
2 *154:A 0.000473415
3 *154:A *25:12 3.08664e-05
*RES
1 thermal_alert *154:A 23.175 
*END

*D_NET *12 0.00145932
*CONN
*P wakeup_event I
*I *155:A I *D sky130_fd_sc_hd__buf_1
*CAP
1 wakeup_event 0.000715453
2 *155:A 0.000715453
3 *155:A *27:10 2.84109e-05
4 current_state[0] *155:A 0
*RES
1 wakeup_event *155:A 26.6783 
*END

*D_NET *13 0.000509063
*CONN
*I *146:D I *D sky130_fd_sc_hd__dfrtp_1
*I *143:X O *D sky130_fd_sc_hd__a211o_1
*CAP
1 *146:D 0.000177187
2 *143:X 0.000177187
3 *146:D *146:RESET_B 2.84109e-05
4 *146:D *25:12 0.000126278
*RES
1 *143:X *146:D 31.0107 
*END

*D_NET *14 0.00196856
*CONN
*I *147:D I *D sky130_fd_sc_hd__dfrtp_2
*I *145:Y O *D sky130_fd_sc_hd__o21bai_1
*CAP
1 *147:D 0.000785248
2 *145:Y 0.000785248
3 *147:D *143:C1 7.74068e-05
4 *147:D *145:B1_N 4.76891e-06
5 *147:D *146:CLK 7.89362e-05
6 *147:D *147:CLK 9.83442e-05
7 *149:A *147:D 0.000138607
*RES
1 *145:Y *147:D 41.0821 
*END

*D_NET *15 0.000670513
*CONN
*I *137:A I *D sky130_fd_sc_hd__buf_1
*I *136:X O *D sky130_fd_sc_hd__clkbuf_1
*CAP
1 *137:A 0.000182084
2 *136:X 0.000182084
3 *137:A *139:A 0.000124749
4 *137:A *29:32 7.74068e-05
5 *137:A *29:53 0.00010419
*RES
1 *136:X *137:A 31.6714 
*END

*D_NET *16 0.000584167
*CONN
*I *139:A I *D sky130_fd_sc_hd__clkbuf_1
*I *138:X O *D sky130_fd_sc_hd__or2_1
*CAP
1 *139:A 0.000131129
2 *138:X 0.000131129
3 *139:A *138:A 1.21258e-05
4 *139:A *140:B_N 6.05161e-06
5 *139:A *145:A1 5.23735e-05
6 *139:A *24:10 3.67279e-06
7 *139:A *24:14 1.70057e-05
8 *139:A *29:53 0.00010593
9 *137:A *139:A 0.000124749
*RES
1 *138:X *139:A 30.725 
*END

*D_NET *17 0.000417856
*CONN
*I *143:A1 I *D sky130_fd_sc_hd__a211o_1
*I *140:X O *D sky130_fd_sc_hd__or2b_1
*CAP
1 *143:A1 5.22999e-05
2 *140:X 5.22999e-05
3 *143:A1 *142:C_N 1.4796e-05
4 *143:A1 *143:A2 0.000219314
5 *143:A1 *143:C1 7.91464e-05
*RES
1 *140:X *143:A1 20.7964 
*END

*D_NET *18 0.00146022
*CONN
*I *143:A2 I *D sky130_fd_sc_hd__a211o_1
*I *141:X O *D sky130_fd_sc_hd__and2b_1
*CAP
1 *143:A2 0.000252633
2 *141:X 0.000252633
3 *143:A2 *140:B_N 2.85234e-05
4 *143:A2 *142:C_N 1.97617e-05
5 *143:A2 *143:C1 1.59373e-05
6 *143:A2 *158:A 0.000195332
7 *143:A2 *29:53 1.03904e-05
8 *143:A2 *30:10 0.000127939
9 *143:A2 *30:23 0.000140822
10 *143:A2 *30:25 5.49995e-05
11 *143:A2 *30:27 0.000141941
12 *143:A1 *143:A2 0.000219314
*RES
1 *141:X *143:A2 35.5107 
*END

*D_NET *19 0.000471516
*CONN
*I *143:B1 I *D sky130_fd_sc_hd__a211o_1
*I *142:Y O *D sky130_fd_sc_hd__nor3b_1
*CAP
1 *143:B1 0.000143386
2 *142:Y 0.000143386
3 *143:B1 *145:A2 3.92667e-05
4 *143:B1 *30:52 0.000145477
*RES
1 *142:Y *143:B1 30.4571 
*END

*D_NET *20 0.00122343
*CONN
*I *145:A2 I *D sky130_fd_sc_hd__o21bai_1
*I *144:Y O *D sky130_fd_sc_hd__a21oi_1
*CAP
1 *145:A2 0.000520992
2 *144:Y 0.000520992
3 *145:A2 *142:A 1.5546e-05
4 *145:A2 *142:C_N 5.77852e-05
5 *145:A2 *145:A1 3.62317e-05
6 *145:A2 *24:10 1.36826e-05
7 *145:A2 *25:12 1.89294e-05
8 *143:B1 *145:A2 3.92667e-05
*RES
1 *144:Y *145:A2 35.0643 
*END

*D_NET *21 0.00266814
*CONN
*I *150:A I *D sky130_fd_sc_hd__clkbuf_16
*I *151:A I *D sky130_fd_sc_hd__clkbuf_16
*I *149:X O *D sky130_fd_sc_hd__clkbuf_16
*CAP
1 *150:A 0.000231004
2 *151:A 0.00057128
3 *149:X 0.000517579
4 *21:6 0.00131986
5 *151:A *158:A 2.84109e-05
*RES
1 *149:X *21:6 16.8179 
2 *21:6 *151:A 27.925 
3 *21:6 *150:A 22.3714 
*END

*D_NET *22 0.00134187
*CONN
*I *147:CLK I *D sky130_fd_sc_hd__dfrtp_2
*I *150:X O *D sky130_fd_sc_hd__clkbuf_16
*CAP
1 *147:CLK 0.000621765
2 *150:X 0.000621765
3 *147:D *147:CLK 9.83442e-05
*RES
1 *150:X *147:CLK 38.1179 
*END

*D_NET *23 0.000565704
*CONN
*I *146:CLK I *D sky130_fd_sc_hd__dfrtp_1
*I *151:X O *D sky130_fd_sc_hd__clkbuf_16
*CAP
1 *146:CLK 0.000194386
2 *151:X 0.000194386
3 *146:CLK *158:A 9.79957e-05
4 *147:D *146:CLK 7.89362e-05
*RES
1 *151:X *146:CLK 30.85 
*END

*D_NET *24 0.00500977
*CONN
*I *144:A2 I *D sky130_fd_sc_hd__a21oi_1
*I *140:B_N I *D sky130_fd_sc_hd__or2b_1
*I *142:C_N I *D sky130_fd_sc_hd__nor3b_1
*I *152:X O *D sky130_fd_sc_hd__buf_1
*CAP
1 *144:A2 0
2 *140:B_N 9.19237e-05
3 *142:C_N 0.000370232
4 *152:X 0.00142046
5 *24:14 0.000552524
6 *24:10 0.00151083
7 *140:B_N *138:A 5.49995e-05
8 *140:B_N *143:C1 1.19813e-05
9 *140:B_N *30:25 8.43535e-06
10 *142:C_N *143:C1 0.000269372
11 *142:C_N *145:A1 2.84109e-05
12 *142:C_N *25:12 0.000147784
13 *24:10 *156:A 0.000312003
14 *24:14 *29:53 3.54498e-05
15 *24:14 *30:52 2.98475e-05
16 clk_gate_en *24:10 4.23644e-06
17 *139:A *140:B_N 6.05161e-06
18 *139:A *24:10 3.67279e-06
19 *139:A *24:14 1.70057e-05
20 *143:A1 *142:C_N 1.4796e-05
21 *143:A2 *140:B_N 2.85234e-05
22 *143:A2 *142:C_N 1.97617e-05
23 *145:A2 *142:C_N 5.77852e-05
24 *145:A2 *24:10 1.36826e-05
*RES
1 *152:X *24:10 34.2821 
2 *24:10 *24:14 6.14286 
3 *24:14 *142:C_N 24.6036 
4 *24:14 *140:B_N 11.3893 
5 *24:10 *144:A2 13.8 
*END

*D_NET *25 0.0044747
*CONN
*I *146:RESET_B I *D sky130_fd_sc_hd__dfrtp_1
*I *147:RESET_B I *D sky130_fd_sc_hd__dfrtp_2
*I *153:X O *D sky130_fd_sc_hd__buf_1
*CAP
1 *146:RESET_B 5.43634e-05
2 *147:RESET_B 0.000340633
3 *153:X 0.00131309
4 *25:12 0.00170809
5 *25:12 *26:10 0.000706256
6 *142:C_N *25:12 0.000147784
7 *145:A2 *25:12 1.89294e-05
8 *146:D *146:RESET_B 2.84109e-05
9 *146:D *25:12 0.000126278
10 *154:A *25:12 3.08664e-05
*RES
1 *153:X *25:12 38.9429 
2 *25:12 *147:RESET_B 10.3661 
3 *25:12 *146:RESET_B 5.38393 
*END

*D_NET *26 0.00380805
*CONN
*I *145:B1_N I *D sky130_fd_sc_hd__o21bai_1
*I *143:C1 I *D sky130_fd_sc_hd__a211o_1
*I *154:X O *D sky130_fd_sc_hd__buf_1
*CAP
1 *145:B1_N 4.84715e-05
2 *143:C1 0.000406845
3 *154:X 0.000789933
4 *26:10 0.00124525
5 *143:C1 *158:A 0.00015268
6 *140:B_N *143:C1 1.19813e-05
7 *142:C_N *143:C1 0.000269372
8 *143:A1 *143:C1 7.91464e-05
9 *143:A2 *143:C1 1.59373e-05
10 *147:D *143:C1 7.74068e-05
11 *147:D *145:B1_N 4.76891e-06
12 *25:12 *26:10 0.000706256
*RES
1 *154:X *26:10 26.3893 
2 *26:10 *143:C1 23.0857 
3 *26:10 *145:B1_N 14.3357 
*END

*D_NET *27 0.00540886
*CONN
*I *145:A1 I *D sky130_fd_sc_hd__o21bai_1
*I *141:A_N I *D sky130_fd_sc_hd__and2b_1
*I *155:X O *D sky130_fd_sc_hd__buf_1
*CAP
1 *145:A1 0.00105887
2 *141:A_N 9.53473e-05
3 *155:X 0.000972729
4 *27:10 0.00212694
5 *141:A_N *157:A 0.000185118
6 *145:A1 *142:A 2.67138e-05
7 *145:A1 *142:B 9.32817e-05
8 *145:A1 *148:A 0.000338761
9 *145:A1 *159:A 1.07719e-05
10 *145:A1 *29:53 1.63801e-05
11 *145:A1 *31:6 4.6982e-05
12 *27:10 *157:A 0.000291539
13 *139:A *145:A1 5.23735e-05
14 *142:C_N *145:A1 2.84109e-05
15 *145:A2 *145:A1 3.62317e-05
16 *155:A *27:10 2.84109e-05
*RES
1 *155:X *27:10 27.0321 
2 *27:10 *141:A_N 15.9786 
3 *27:10 *145:A1 32.6929 
*END

*D_NET *28 0.00135981
*CONN
*I *156:A I *D sky130_fd_sc_hd__clkbuf_4
*I *139:X O *D sky130_fd_sc_hd__clkbuf_1
*CAP
1 *156:A 0.00043748
2 *139:X 0.00043748
3 clk_gate_en *156:A 0.000172852
4 *24:10 *156:A 0.000312003
*RES
1 *139:X *156:A 38.6357 
*END

*D_NET *29 0.00522589
*CONN
*I *142:B I *D sky130_fd_sc_hd__nor3b_1
*I *144:A1 I *D sky130_fd_sc_hd__a21oi_1
*I *138:B I *D sky130_fd_sc_hd__or2_1
*I *157:A I *D sky130_fd_sc_hd__clkbuf_4
*I *141:B I *D sky130_fd_sc_hd__and2b_1
*I *146:Q O *D sky130_fd_sc_hd__dfrtp_1
*CAP
1 *142:B 0.000109195
2 *144:A1 0
3 *138:B 0.000235691
4 *157:A 0.000990464
5 *141:B 0
6 *146:Q 0
7 *29:53 0.000382763
8 *29:32 0.000590194
9 *29:10 0.00103391
10 *29:6 0.000124382
11 *138:B *138:A 8.95364e-05
12 *142:B *142:A 0.000139094
13 *29:10 *160:A 0.000175281
14 *29:10 *30:10 0.000176941
15 *29:32 *160:A 1.00887e-05
16 *29:32 *30:10 4.73355e-05
17 *29:32 *30:23 0.00014925
18 current_state[0] *157:A 5.20751e-05
19 *137:A *29:32 7.74068e-05
20 *137:A *29:53 0.00010419
21 *139:A *29:53 0.00010593
22 *141:A_N *157:A 0.000185118
23 *143:A2 *29:53 1.03904e-05
24 *145:A1 *142:B 9.32817e-05
25 *145:A1 *29:53 1.63801e-05
26 *24:14 *29:53 3.54498e-05
27 *27:10 *157:A 0.000291539
*RES
1 *146:Q *29:6 13.8 
2 *29:6 *29:10 6.75 
3 *29:10 *141:B 9.3 
4 *29:10 *157:A 36.3357 
5 *29:6 *29:32 2.55357 
6 *29:32 *138:B 17.0143 
7 *29:32 *29:53 9.07143 
8 *29:53 *144:A1 9.3 
9 *29:53 *142:B 12.8 
*END

*D_NET *30 0.00587529
*CONN
*I *138:A I *D sky130_fd_sc_hd__or2_1
*I *140:A I *D sky130_fd_sc_hd__or2b_1
*I *144:B1 I *D sky130_fd_sc_hd__a21oi_1
*I *142:A I *D sky130_fd_sc_hd__nor3b_1
*I *158:A I *D sky130_fd_sc_hd__clkbuf_4
*I *136:A I *D sky130_fd_sc_hd__clkbuf_1
*I *147:Q O *D sky130_fd_sc_hd__dfrtp_2
*CAP
1 *138:A 0.000126082
2 *140:A 0
3 *144:B1 0
4 *142:A 0.000138167
5 *158:A 0.00107279
6 *136:A 0.000102763
7 *147:Q 0.000178673
8 *30:52 0.000293888
9 *30:27 0.0013122
10 *30:25 0.000151382
11 *30:23 0.000239333
12 *30:10 0.000326995
13 *136:A *160:A 5.20751e-05
14 *30:10 *160:A 4.55219e-05
15 *138:B *138:A 8.95364e-05
16 *139:A *138:A 1.21258e-05
17 *140:B_N *138:A 5.49995e-05
18 *140:B_N *30:25 8.43535e-06
19 *142:B *142:A 0.000139094
20 *143:A2 *158:A 0.000195332
21 *143:A2 *30:10 0.000127939
22 *143:A2 *30:23 0.000140822
23 *143:A2 *30:25 5.49995e-05
24 *143:A2 *30:27 0.000141941
25 *143:B1 *30:52 0.000145477
26 *143:C1 *158:A 0.00015268
27 *145:A1 *142:A 2.67138e-05
28 *145:A2 *142:A 1.5546e-05
29 *146:CLK *158:A 9.79957e-05
30 *151:A *158:A 2.84109e-05
31 *24:14 *30:52 2.98475e-05
32 *29:10 *30:10 0.000176941
33 *29:32 *30:10 4.73355e-05
34 *29:32 *30:23 0.00014925
*RES
1 *147:Q *30:10 18.4071 
2 *30:10 *136:A 15.5679 
3 *30:10 *30:23 6.44643 
4 *30:23 *30:25 0.946429 
5 *30:25 *30:27 1.35714 
6 *30:27 *158:A 35.7286 
7 *30:27 *30:52 11.8571 
8 *30:52 *142:A 11.9875 
9 *30:52 *144:B1 9.3 
10 *30:25 *140:A 9.3 
11 *30:23 *138:A 12.2286 
*END

*D_NET *31 0.00267542
*CONN
*I *159:A I *D sky130_fd_sc_hd__clkbuf_4
*I *148:A I *D sky130_fd_sc_hd__clkbuf_1
*I *137:X O *D sky130_fd_sc_hd__buf_1
*CAP
1 *159:A 0.000776412
2 *148:A 0.000226949
3 *137:X 0.00013609
4 *31:6 0.00113945
5 *145:A1 *148:A 0.000338761
6 *145:A1 *159:A 1.07719e-05
7 *145:A1 *31:6 4.6982e-05
*RES
1 *137:X *31:6 11.0679 
2 *31:6 *148:A 23.2107 
3 *31:6 *159:A 18.4786 
*END

*D_NET *32 0.00221976
*CONN
*I *160:A I *D sky130_fd_sc_hd__clkbuf_4
*I *148:X O *D sky130_fd_sc_hd__clkbuf_1
*CAP
1 *160:A 0.000968395
2 *148:X 0.000968395
3 *136:A *160:A 5.20751e-05
4 *29:10 *160:A 0.000175281
5 *29:32 *160:A 1.00887e-05
6 *30:10 *160:A 4.55219e-05
*RES
1 *148:X *160:A 44.8857 
*END
