*SPEF "ieee 1481-1999"
*DESIGN "pmu_controller"
*DATE "11:11:11 Fri 11 11, 1111"
*VENDOR "OpenRCX"
*PROGRAM "Parallel Extraction"
*VERSION "1.0"
*DESIGN_FLOW "NAME_SCOPE LOCAL" "PIN_CAP NONE"
*DIVIDER /
*DELIMITER :
*BUS_DELIMITER []
*T_UNIT 1 NS
*C_UNIT 1 PF
*R_UNIT 1 OHM
*L_UNIT 1 HENRY

*NAME_MAP
*3 app_idle
*4 clk
*5 clk_gate_en
*6 current_state[0]
*7 current_state[1]
*8 isolation_en
*9 pwr_gate_en
*10 reset_n
*11 thermal_alert
*12 wakeup_event
*13 _00_
*14 _01_
*15 _02_
*16 _03_
*17 _04_
*18 _05_
*19 _06_
*20 _07_
*21 clknet_0_clk
*22 clknet_1_0__leaf_clk
*23 clknet_1_1__leaf_clk
*24 net1
*25 net2
*26 net3
*27 net4
*28 net5
*29 net6
*30 net7
*31 net8
*32 net9
*33 FILLER_0_0_15
*34 FILLER_0_0_27
*35 FILLER_0_0_3
*36 FILLER_0_0_35
*37 FILLER_0_0_47
*38 FILLER_0_0_55
*39 FILLER_0_0_57
*40 FILLER_0_0_69
*41 FILLER_0_0_79
*42 FILLER_0_1_23
*43 FILLER_0_1_35
*44 FILLER_0_1_47
*45 FILLER_0_1_55
*46 FILLER_0_1_57
*47 FILLER_0_1_69
*48 FILLER_0_1_77
*49 FILLER_0_2_15
*50 FILLER_0_2_27
*51 FILLER_0_2_3
*52 FILLER_0_2_50
*53 FILLER_0_2_62
*54 FILLER_0_2_74
*55 FILLER_0_2_80
*56 FILLER_0_3_15
*57 FILLER_0_3_23
*58 FILLER_0_3_3
*59 FILLER_0_3_52
*60 FILLER_0_3_57
*61 FILLER_0_3_69
*62 FILLER_0_4_21
*63 FILLER_0_4_27
*64 FILLER_0_4_55
*65 FILLER_0_4_67
*66 FILLER_0_4_79
*67 FILLER_0_4_9
*68 FILLER_0_5_15
*69 FILLER_0_5_3
*70 FILLER_0_5_54
*71 FILLER_0_5_57
*72 FILLER_0_5_69
*73 FILLER_0_6_15
*74 FILLER_0_6_27
*75 FILLER_0_6_3
*76 FILLER_0_6_35
*77 FILLER_0_6_52
*78 FILLER_0_6_64
*79 FILLER_0_6_72
*80 FILLER_0_7_15
*81 FILLER_0_7_27
*82 FILLER_0_7_3
*83 FILLER_0_7_39
*84 FILLER_0_7_51
*85 FILLER_0_7_55
*86 FILLER_0_7_57
*87 FILLER_0_7_69
*88 FILLER_0_8_15
*89 FILLER_0_8_27
*90 FILLER_0_8_29
*91 FILLER_0_8_3
*92 FILLER_0_8_41
*93 FILLER_0_8_53
*94 FILLER_0_8_65
*95 FILLER_0_8_77
*96 FILLER_0_9_13
*97 FILLER_0_9_25
*98 FILLER_0_9_29
*99 FILLER_0_9_41
*100 FILLER_0_9_53
*101 FILLER_0_9_6
*102 FILLER_0_9_63
*103 FILLER_0_9_75
*104 PHY_0
*105 PHY_1
*106 PHY_10
*107 PHY_11
*108 PHY_12
*109 PHY_13
*110 PHY_14
*111 PHY_15
*112 PHY_16
*113 PHY_17
*114 PHY_18
*115 PHY_19
*116 PHY_2
*117 PHY_3
*118 PHY_4
*119 PHY_5
*120 PHY_6
*121 PHY_7
*122 PHY_8
*123 PHY_9
*124 TAP_20
*125 TAP_21
*126 TAP_22
*127 TAP_23
*128 TAP_24
*129 TAP_25
*130 TAP_26
*131 TAP_27
*132 TAP_28
*133 TAP_29
*134 TAP_30
*135 TAP_31
*136 _08_
*137 _09_
*138 _10_
*139 _11_
*140 _12_
*141 _13_
*142 _14_
*143 _15_
*144 _16_
*145 _17_
*146 _18_
*147 _19_
*148 _20_
*149 clkbuf_0_clk
*150 clkbuf_1_0__f_clk
*151 clkbuf_1_1__f_clk
*152 input1
*153 input2
*154 input3
*155 input4
*156 output5
*157 output6
*158 output7
*159 output8
*160 output9

*PORTS
app_idle I
clk I
clk_gate_en O
current_state[0] O
current_state[1] O
isolation_en O
pwr_gate_en O
reset_n I
thermal_alert I
wakeup_event I

*D_NET *3 0.00157004
*CONN
*P app_idle I
*I *152:A I *D sky130_fd_sc_hd__buf_1
*CAP
1 app_idle 0.000785022
2 *152:A 0
3 *3:11 0.000785022
*RES
1 app_idle *3:11 31.5921 
2 *3:11 *152:A 23 
*END

*D_NET *4 0.00455889
*CONN
*P clk I
*I *149:A I *D sky130_fd_sc_hd__clkbuf_16
*CAP
1 clk 0.00217055
2 *149:A 0
3 *4:13 0.00217055
4 *4:13 current_state[1] 6.32483e-05
5 *4:13 *7:10 0
6 *4:13 *14:14 0.000154535
*RES
1 clk *4:13 41.1932 
2 *4:13 *149:A 38 
*END

*D_NET *5 0.00156341
*CONN
*P clk_gate_en O
*I *156:X O *D sky130_fd_sc_hd__clkbuf_4
*CAP
1 clk_gate_en 0.000434189
2 *156:X 0.000255381
3 *5:8 0.00068957
4 *5:8 *156:A 0.000180349
5 *5:8 *24:6 3.91683e-06
*RES
1 *156:X *5:8 41.9564 
2 *5:8 clk_gate_en 9.40429 
*END

*D_NET *6 0.0010351
*CONN
*P current_state[0] O
*I *157:X O *D sky130_fd_sc_hd__clkbuf_4
*CAP
1 current_state[0] 0.000490531
2 *157:X 0.000490531
3 current_state[0] *157:A 5.40337e-05
4 current_state[0] *12:13 0
*RES
1 *157:X current_state[0] 47.57 
*END

*D_NET *7 0.000706762
*CONN
*P current_state[1] O
*I *158:X O *D sky130_fd_sc_hd__clkbuf_4
*CAP
1 current_state[1] 7.48416e-05
2 *158:X 0.000246915
3 *7:10 0.000321757
4 *4:13 current_state[1] 6.32483e-05
5 *4:13 *7:10 0
*RES
1 *158:X *7:10 42.6089 
2 *7:10 current_state[1] 8.32853 
*END

*D_NET *8 0.000713263
*CONN
*P isolation_en O
*I *159:X O *D sky130_fd_sc_hd__clkbuf_4
*CAP
1 isolation_en 0.000356631
2 *159:X 0.000356631
*RES
1 *159:X isolation_en 48.8721 
*END

*D_NET *9 0.000740975
*CONN
*P pwr_gate_en O
*I *160:X O *D sky130_fd_sc_hd__clkbuf_4
*CAP
1 pwr_gate_en 0.000370487
2 *160:X 0.000370487
*RES
1 *160:X pwr_gate_en 45.9957 
*END

*D_NET *10 0.000891919
*CONN
*P reset_n I
*I *153:A I *D sky130_fd_sc_hd__buf_1
*CAP
1 reset_n 0.00044596
2 *153:A 0
3 *10:13 0.00044596
*RES
1 reset_n *10:13 30.4025 
2 *10:13 *153:A 23 
*END

*D_NET *11 0.00102984
*CONN
*P thermal_alert I
*I *154:A I *D sky130_fd_sc_hd__buf_1
*CAP
1 thermal_alert 0.000498815
2 *154:A 0.000498815
3 *154:A *25:8 3.22051e-05
*RES
1 thermal_alert *154:A 48.875 
*END

*D_NET *12 0.00155103
*CONN
*P wakeup_event I
*I *155:A I *D sky130_fd_sc_hd__buf_1
*CAP
1 wakeup_event 0.000760843
2 *155:A 0
3 *12:13 0.000760843
4 *12:13 *27:8 2.93431e-05
5 current_state[0] *12:13 0
*RES
1 wakeup_event *12:13 34.0101 
2 *12:13 *155:A 23 
*END

*D_NET *13 0.000571111
*CONN
*I *146:D I *D sky130_fd_sc_hd__dfrtp_1
*I *143:X O *D sky130_fd_sc_hd__a211o_1
*CAP
1 *146:D 0.000117826
2 *143:X 8.26156e-05
3 *13:8 0.000200442
4 *146:D *146:RESET_B 2.93431e-05
5 *13:8 *25:12 0.000140884
*RES
1 *143:X *13:8 39.9057 
2 *13:8 *146:D 40.0507 
*END

*D_NET *14 0.00215708
*CONN
*I *147:D I *D sky130_fd_sc_hd__dfrtp_2
*I *145:Y O *D sky130_fd_sc_hd__o21bai_1
*CAP
1 *147:D 0
2 *145:Y 0.000173695
3 *14:14 0.00068849
4 *14:8 0.000862185
5 *14:8 *145:B1_N 4.46957e-06
6 *14:14 *143:C1 8.57485e-05
7 *14:14 *147:CLK 0.000100069
8 *14:14 *23:10 8.78864e-05
9 *4:13 *14:14 0.000154535
*RES
1 *145:Y *14:8 40.0507 
2 *14:8 *14:14 28.5886 
3 *14:14 *147:D 23 
*END

*D_NET *15 0.00076242
*CONN
*I *137:A I *D sky130_fd_sc_hd__buf_1
*I *136:X O *D sky130_fd_sc_hd__clkbuf_1
*CAP
1 *137:A 0
2 *136:X 0.000211642
3 *15:8 0.000211642
4 *15:8 *16:10 0.000138747
5 *15:8 *29:32 8.57485e-05
6 *15:8 *29:53 0.000114641
*RES
1 *136:X *15:8 42.7229 
2 *15:8 *137:A 38 
*END

*D_NET *16 0.000666357
*CONN
*I *139:A I *D sky130_fd_sc_hd__clkbuf_1
*I *138:X O *D sky130_fd_sc_hd__or2_1
*CAP
1 *139:A 4.56693e-05
2 *138:X 0.000114174
3 *16:10 0.000159844
4 *139:A *27:33 5.45541e-05
5 *139:A *29:53 2.95423e-05
6 *16:10 *138:A 1.21972e-05
7 *16:10 *140:B_N 6.17437e-06
8 *16:10 *24:10 3.50862e-06
9 *16:10 *24:14 1.61983e-05
10 *16:10 *29:53 8.57485e-05
11 *15:8 *16:10 0.000138747
*RES
1 *138:X *16:10 40.5271 
2 *16:10 *139:A 39.0979 
*END

*D_NET *17 0.000444958
*CONN
*I *143:A1 I *D sky130_fd_sc_hd__a211o_1
*I *140:X O *D sky130_fd_sc_hd__or2b_1
*CAP
1 *143:A1 6.09246e-05
2 *140:X 6.09246e-05
3 *143:A1 *143:A2 0.000226376
4 *143:A1 *143:C1 8.19533e-05
5 *143:A1 *24:24 1.47795e-05
*RES
1 *140:X *143:A1 48.5479 
*END

*D_NET *18 0.00158567
*CONN
*I *143:A2 I *D sky130_fd_sc_hd__a211o_1
*I *141:X O *D sky130_fd_sc_hd__and2b_1
*CAP
1 *143:A2 0.000111989
2 *141:X 0.000179469
3 *18:8 0.000291459
4 *143:A2 *140:B_N 2.95423e-05
5 *143:A2 *143:C1 1.59071e-05
6 *143:A2 *24:24 1.86239e-05
7 *143:A2 *30:25 5.5792e-05
8 *143:A2 *30:27 0.000145171
9 *143:A2 *30:39 0.000200161
10 *18:8 *29:53 1.07299e-05
11 *18:8 *30:10 0.000143166
12 *18:8 *30:23 0.000157287
13 *143:A1 *143:A2 0.000226376
*RES
1 *141:X *18:8 42.3707 
2 *18:8 *143:A2 42.8057 
*END

*D_NET *19 0.000543134
*CONN
*I *143:B1 I *D sky130_fd_sc_hd__a211o_1
*I *142:Y O *D sky130_fd_sc_hd__nor3b_1
*CAP
1 *143:B1 0
2 *142:Y 0.000171576
3 *19:8 0.000171576
4 *19:8 *20:12 3.90764e-05
5 *19:8 *30:52 0.000160906
*RES
1 *142:Y *19:8 41.3143 
2 *19:8 *143:B1 38 
*END

*D_NET *20 0.00137845
*CONN
*I *145:A2 I *D sky130_fd_sc_hd__o21bai_1
*I *144:Y O *D sky130_fd_sc_hd__a21oi_1
*CAP
1 *145:A2 0.000282146
2 *144:Y 0.000316294
3 *20:12 0.000598439
4 *145:A2 *142:A 1.5547e-05
5 *145:A2 *24:24 1.75792e-05
6 *145:A2 *27:33 3.68432e-05
7 *20:12 *24:10 1.28753e-05
8 *20:12 *24:24 4.17581e-05
9 *20:12 *25:12 1.78876e-05
10 *19:8 *20:12 3.90764e-05
*RES
1 *144:Y *20:12 42.8057 
2 *20:12 *145:A2 41.8529 
*END

*D_NET *21 0.00292143
*CONN
*I *150:A I *D sky130_fd_sc_hd__clkbuf_16
*I *151:A I *D sky130_fd_sc_hd__clkbuf_16
*I *149:X O *D sky130_fd_sc_hd__clkbuf_16
*CAP
1 *150:A 0
2 *151:A 0
3 *149:X 0.000566353
4 *21:35 0.000254752
5 *21:24 0.000624938
6 *21:6 0.00144604
7 *21:24 *30:39 2.93431e-05
*RES
1 *149:X *21:6 31.7207 
2 *21:6 *21:24 41.165 
3 *21:24 *151:A 23 
4 *21:6 *21:35 34.7229 
5 *21:35 *150:A 23 
*END

*D_NET *22 0.00143637
*CONN
*I *147:CLK I *D sky130_fd_sc_hd__dfrtp_2
*I *150:X O *D sky130_fd_sc_hd__clkbuf_16
*CAP
1 *147:CLK 0.000585457
2 *150:X 8.26915e-05
3 *22:8 0.000668149
4 *14:14 *147:CLK 0.000100069
*RES
1 *150:X *22:8 39.2014 
2 *22:8 *147:CLK 48.9993 
*END

*D_NET *23 0.000622832
*CONN
*I *146:CLK I *D sky130_fd_sc_hd__dfrtp_1
*I *151:X O *D sky130_fd_sc_hd__clkbuf_16
*CAP
1 *146:CLK 7.26589e-05
2 *151:X 0.000145011
3 *23:10 0.00021767
4 *23:10 *30:39 9.96055e-05
5 *14:14 *23:10 8.78864e-05
*RES
1 *151:X *23:10 40.2993 
2 *23:10 *146:CLK 39.4707 
*END

*D_NET *24 0.00535639
*CONN
*I *144:A2 I *D sky130_fd_sc_hd__a21oi_1
*I *140:B_N I *D sky130_fd_sc_hd__or2b_1
*I *142:C_N I *D sky130_fd_sc_hd__nor3b_1
*I *152:X O *D sky130_fd_sc_hd__buf_1
*CAP
1 *144:A2 0
2 *140:B_N 0.000103109
3 *142:C_N 0
4 *152:X 0.00117325
5 *24:24 0.000413291
6 *24:14 0.000631758
7 *24:10 0.000450219
8 *24:6 0.00150811
9 *140:B_N *138:A 5.5792e-05
10 *140:B_N *143:C1 1.1258e-05
11 *140:B_N *30:25 8.48502e-06
12 *24:6 *156:A 0.00015718
13 *24:10 *28:8 0.000146448
14 *24:14 *29:53 3.6608e-05
15 *24:14 *30:52 2.79603e-05
16 *24:24 *143:C1 0.000274226
17 *24:24 *25:12 0.000164392
18 *24:24 *27:33 2.93431e-05
19 *143:A1 *24:24 1.47795e-05
20 *143:A2 *140:B_N 2.95423e-05
21 *143:A2 *24:24 1.86239e-05
22 *145:A2 *24:24 1.75792e-05
23 *5:8 *24:6 3.91683e-06
24 *16:10 *140:B_N 6.17437e-06
25 *16:10 *24:10 3.50862e-06
26 *16:10 *24:14 1.61983e-05
27 *20:12 *24:10 1.28753e-05
28 *20:12 *24:24 4.17581e-05
*RES
1 *152:X *24:6 38.8671 
2 *24:6 *24:10 22.8921 
3 *24:10 *24:14 16.9057 
4 *24:14 *24:24 37.3121 
5 *24:24 *142:C_N 23 
6 *24:14 *140:B_N 25.4236 
7 *24:10 *144:A2 38 
*END

*D_NET *25 0.00485927
*CONN
*I *146:RESET_B I *D sky130_fd_sc_hd__dfrtp_1
*I *147:RESET_B I *D sky130_fd_sc_hd__dfrtp_2
*I *153:X O *D sky130_fd_sc_hd__buf_1
*CAP
1 *146:RESET_B 6.07326e-05
2 *147:RESET_B 0.000372865
3 *153:X 0.000647735
4 *25:12 0.00122758
5 *25:8 0.00144172
6 *25:8 *26:8 0.000723918
7 *146:D *146:RESET_B 2.93431e-05
8 *154:A *25:8 3.22051e-05
9 *13:8 *25:12 0.000140884
10 *20:12 *25:12 1.78876e-05
11 *24:24 *25:12 0.000164392
*RES
1 *153:X *25:8 37.935 
2 *25:8 *25:12 29.2307 
3 *25:12 *147:RESET_B 21.8046 
4 *25:12 *146:RESET_B 16.0254 
*END

*D_NET *26 0.00405325
*CONN
*I *145:B1_N I *D sky130_fd_sc_hd__o21bai_1
*I *143:C1 I *D sky130_fd_sc_hd__a211o_1
*I *154:X O *D sky130_fd_sc_hd__buf_1
*CAP
1 *145:B1_N 5.29812e-05
2 *143:C1 0.000456097
3 *154:X 0.000463901
4 *26:10 0.000887943
5 *26:8 0.000842766
6 *143:C1 *30:39 0.000152079
7 *140:B_N *143:C1 1.1258e-05
8 *143:A1 *143:C1 8.19533e-05
9 *143:A2 *143:C1 1.59071e-05
10 *14:8 *145:B1_N 4.46957e-06
11 *14:14 *143:C1 8.57485e-05
12 *24:24 *143:C1 0.000274226
13 *25:8 *26:8 0.000723918
*RES
1 *154:X *26:8 45.7679 
2 *26:8 *26:10 6.83571 
3 *26:10 *143:C1 48.7714 
4 *26:10 *145:B1_N 38.6214 
*END

*D_NET *27 0.0058556
*CONN
*I *145:A1 I *D sky130_fd_sc_hd__o21bai_1
*I *141:A_N I *D sky130_fd_sc_hd__and2b_1
*I *155:X O *D sky130_fd_sc_hd__buf_1
*CAP
1 *145:A1 0
2 *141:A_N 0.000105197
3 *155:X 0.000844311
4 *27:33 0.00116759
5 *27:10 0.00146644
6 *27:8 0.00103796
7 *141:A_N *29:23 0.000188927
8 *27:10 *29:23 0.000325212
9 *27:33 *142:A 2.59253e-05
10 *27:33 *142:B 9.49694e-05
11 *27:33 *159:A 1.05235e-05
12 *27:33 *29:53 1.5725e-05
13 *27:33 *31:6 4.48155e-05
14 *27:33 *31:14 0.000377921
15 *139:A *27:33 5.45541e-05
16 *145:A2 *27:33 3.68432e-05
17 *12:13 *27:8 2.93431e-05
18 *24:24 *27:33 2.93431e-05
*RES
1 *155:X *27:8 48.6264 
2 *27:8 *27:10 4.72286 
3 *27:10 *141:A_N 40.5271 
4 *27:10 *27:33 36.9157 
5 *27:33 *145:A1 23 
*END

*D_NET *28 0.0014673
*CONN
*I *156:A I *D sky130_fd_sc_hd__clkbuf_4
*I *139:X O *D sky130_fd_sc_hd__clkbuf_1
*CAP
1 *156:A 0.000145578
2 *139:X 0.000346083
3 *28:8 0.000491661
4 *5:8 *156:A 0.000180349
5 *24:6 *156:A 0.00015718
6 *24:10 *28:8 0.000146448
*RES
1 *139:X *28:8 45.8921 
2 *28:8 *156:A 42.9093 
*END

*D_NET *29 0.00577508
*CONN
*I *142:B I *D sky130_fd_sc_hd__nor3b_1
*I *144:A1 I *D sky130_fd_sc_hd__a21oi_1
*I *138:B I *D sky130_fd_sc_hd__or2_1
*I *157:A I *D sky130_fd_sc_hd__clkbuf_4
*I *141:B I *D sky130_fd_sc_hd__and2b_1
*I *146:Q O *D sky130_fd_sc_hd__dfrtp_1
*CAP
1 *142:B 0.000122904
2 *144:A1 0
3 *138:B 0.000258311
4 *157:A 0.000503192
5 *141:B 0
6 *146:Q 0
7 *29:53 0.000441055
8 *29:32 0.000672561
9 *29:23 0.00108796
10 *29:10 0.000637755
11 *29:6 0.00014909
12 *138:B *138:A 9.19838e-05
13 *142:B *142:A 0.000143023
14 *29:10 *30:10 0.000198447
15 *29:10 *32:14 0.000196165
16 *29:32 *30:10 5.29888e-05
17 *29:32 *30:23 0.000166387
18 *29:32 *32:14 1.13812e-05
19 current_state[0] *157:A 5.40337e-05
20 *139:A *29:53 2.95423e-05
21 *141:A_N *29:23 0.000188927
22 *15:8 *29:32 8.57485e-05
23 *15:8 *29:53 0.000114641
24 *16:10 *29:53 8.57485e-05
25 *18:8 *29:53 1.07299e-05
26 *24:14 *29:53 3.6608e-05
27 *27:10 *29:23 0.000325212
28 *27:33 *142:B 9.49694e-05
29 *27:33 *29:53 1.5725e-05
*RES
1 *146:Q *29:6 38 
2 *29:6 *29:10 17.61 
3 *29:10 *141:B 23 
4 *29:10 *29:23 41.7243 
5 *29:23 *157:A 32.1971 
6 *29:6 *29:32 2.96214 
7 *29:32 *138:B 41.7286 
8 *29:32 *29:53 20.3029 
9 *29:53 *144:A1 23 
10 *29:53 *142:B 27.06 
*END

*D_NET *30 0.00648356
*CONN
*I *138:A I *D sky130_fd_sc_hd__or2_1
*I *140:A I *D sky130_fd_sc_hd__or2b_1
*I *144:B1 I *D sky130_fd_sc_hd__a21oi_1
*I *142:A I *D sky130_fd_sc_hd__nor3b_1
*I *158:A I *D sky130_fd_sc_hd__clkbuf_4
*I *136:A I *D sky130_fd_sc_hd__clkbuf_1
*I *147:Q O *D sky130_fd_sc_hd__dfrtp_2
*CAP
1 *138:A 0.000143862
2 *140:A 0
3 *144:B1 0
4 *142:A 0.000162619
5 *158:A 0
6 *136:A 0.000118839
7 *147:Q 0.000202689
8 *30:52 0.000354784
9 *30:39 0.00117627
10 *30:27 0.00145653
11 *30:25 0.000164584
12 *30:23 0.000279411
13 *30:10 0.00038059
14 *136:A *32:8 5.40337e-05
15 *30:10 *32:14 4.70975e-05
16 *138:B *138:A 9.19838e-05
17 *140:B_N *138:A 5.5792e-05
18 *140:B_N *30:25 8.48502e-06
19 *142:B *142:A 0.000143023
20 *143:A2 *30:25 5.5792e-05
21 *143:A2 *30:27 0.000145171
22 *143:A2 *30:39 0.000200161
23 *143:C1 *30:39 0.000152079
24 *145:A2 *142:A 1.5547e-05
25 *16:10 *138:A 1.21972e-05
26 *18:8 *30:10 0.000143166
27 *18:8 *30:23 0.000157287
28 *19:8 *30:52 0.000160906
29 *21:24 *30:39 2.93431e-05
30 *23:10 *30:39 9.96055e-05
31 *24:14 *30:52 2.79603e-05
32 *27:33 *142:A 2.59253e-05
33 *29:10 *30:10 0.000198447
34 *29:32 *30:10 5.29888e-05
35 *29:32 *30:23 0.000166387
*RES
1 *147:Q *30:10 43.3443 
2 *30:10 *136:A 40.0507 
3 *30:10 *30:23 17.2579 
4 *30:23 *30:25 1.09786 
5 *30:25 *30:27 1.57429 
6 *30:27 *30:39 35.2171 
7 *30:39 *158:A 38 
8 *30:27 *30:52 33.3143 
9 *30:52 *142:A 26.1175 
10 *30:52 *144:B1 23 
11 *30:25 *140:A 23 
12 *30:23 *138:A 26.3971 
*END

*D_NET *31 0.00286304
*CONN
*I *159:A I *D sky130_fd_sc_hd__clkbuf_4
*I *148:A I *D sky130_fd_sc_hd__clkbuf_1
*I *137:X O *D sky130_fd_sc_hd__buf_1
*CAP
1 *159:A 0.000815158
2 *148:A 0
3 *137:X 0.000145099
4 *31:14 0.000254634
5 *31:6 0.00121489
6 *27:33 *159:A 1.05235e-05
7 *27:33 *31:6 4.48155e-05
8 *27:33 *31:14 0.000377921
*RES
1 *137:X *31:6 25.0507 
2 *31:6 *31:14 35.6964 
3 *31:14 *148:A 23 
4 *31:6 *159:A 33.6471 
*END

*D_NET *32 0.00240338
*CONN
*I *160:A I *D sky130_fd_sc_hd__clkbuf_4
*I *148:X O *D sky130_fd_sc_hd__clkbuf_1
*CAP
1 *160:A 0
2 *148:X 0.00011267
3 *32:14 0.00093468
4 *32:8 0.00104735
5 *136:A *32:8 5.40337e-05
6 *29:10 *32:14 0.000196165
7 *29:32 *32:14 1.13812e-05
8 *30:10 *32:14 4.70975e-05
*RES
1 *148:X *32:8 39.5743 
2 *32:8 *32:14 33.4771 
3 *32:14 *160:A 23 
*END
